<additional>
    <!-- Traffic light definitions for intersections -->
    <tlLogic id="n2" type="static" programID="1" offset="0">
        <phase duration="31" state="GrGrGr"/>
        <phase duration="6" state="yryryr"/>
        <phase duration="31" state="rGrGrG"/>
        <phase duration="6" state="ryryry"/>
    </tlLogic>
   <tlLogic id="n3" type="static" programID="1" offset="0">
        <phase duration="30" state="GrGrGrGrGrGrGrGr"/>
        <phase duration="5" state="yryryryryryryryr"/>
        <phase duration="30" state="rGrGrGrGrGrGrGrG"/>
        <phase duration="5" state="ryryryryryryryry"/>
    </tlLogic>
    <tlLogic id="n4" type="static" programID="1" offset="0">
        <phase duration="25" state="GrGrGr"/>
        <phase duration="5" state="yryryr"/>
        <phase duration="25" state="rGrGrG"/>
        <phase duration="5" state="ryryry"/>
    </tlLogic>
    <tlLogic id="n7" type="static" programID="1" offset="0">
        <phase duration="20" state="GrGr"/>
        <phase duration="4" state="yryr"/>
        <phase duration="20" state="rGrG"/>
        <phase duration="4" state="ryry"/>
    </tlLogic>
</additional>
